
  ACD/Labs08241915143D

 55 58  0  0  0  0  0  0  0  0  1 V2000
   16.5802   -7.0677   -0.8207 C   0  0  0  0  0  0  0  0  0  0  0  0
   15.7549   -8.1629   -0.2450 C   0  0  0  0  0  0  0  0  0  0  0  0
   16.6388   -7.3007   -2.3157 C   0  0  0  0  0  0  0  0  0  0  0  0
   14.6706   -8.5105   -0.8788 C   0  0  0  0  0  0  0  0  0  0  0  0
   15.2574   -7.0333   -2.8873 C   0  0  0  0  0  0  0  0  0  0  0  0
   14.2675   -7.8415   -2.1312 C   0  0  0  0  0  0  0  0  0  0  0  0
   18.5036   -8.4930   -0.0498 C   0  0  0  0  0  0  0  0  0  0  0  0
   17.6417   -9.2819    0.9172 C   0  0  0  0  0  0  0  0  0  0  0  0
   17.9342   -7.1722   -0.2505 C   0  0  0  0  0  0  0  0  0  0  0  0
   16.2423   -8.7751    1.0183 C   0  0  0  0  0  0  0  0  0  0  0  0
   20.8055   -7.4637   -0.1724 C   0  0  0  0  0  0  0  0  0  0  0  0
   19.8915   -8.4323    0.4812 C   0  0  0  0  0  0  0  0  0  0  0  0
   20.0997   -6.4588   -1.0546 C   0  0  0  0  0  0  0  0  0  0  0  0
   18.8277   -6.0134   -0.3648 C   0  0  0  0  0  0  0  0  0  0  0  0
   21.8373   -8.2032   -0.9702 C   0  0  0  0  0  0  0  0  0  0  0  0
   21.4116   -9.6746   -0.9112 C   0  0  0  0  0  0  0  0  0  0  0  0
   20.5886   -9.7780    0.3598 C   0  0  0  0  0  0  0  0  0  0  0  0
   19.1900   -5.5424    0.8948 O   0  0  0  0  0  0  0  0  0  0  0  0
   15.9922   -5.7074   -0.5438 C   0  0  0  0  0  0  0  0  0  0  0  0
   13.1037   -7.9256   -2.5960 O   0  0  0  0  0  0  0  0  0  0  0  0
   23.1805   -8.0408   -0.3564 C   0  0  0  0  0  0  0  0  0  0  0  0
   24.0515   -7.5076   -1.0163 O   0  0  0  0  0  0  0  0  0  0  0  0
   23.4369   -8.5231    1.0294 C   0  0  0  0  0  0  0  0  0  0  0  0
   24.7459   -8.2827    1.4248 O   0  0  0  0  0  0  0  0  0  0  0  0
   21.4843   -6.6481    0.9285 C   0  0  0  0  0  0  0  0  0  0  0  0
   18.3153   -5.2036   -0.9188 H   0  0  0  0  0  0  0  0  0  0  0  0
   21.8523   -7.8610   -2.0286 H   0  0  0  0  0  0  0  0  0  0  0  0
   17.3701   -6.6170   -2.7716 H   0  0  0  0  0  0  0  0  0  0  0  0
   16.9469   -8.3348   -2.5293 H   0  0  0  0  0  0  0  0  0  0  0  0
   14.0438   -9.3180   -0.4726 H   0  0  0  0  0  0  0  0  0  0  0  0
   15.0161   -5.9646   -2.7888 H   0  0  0  0  0  0  0  0  0  0  0  0
   15.2317   -7.3076   -3.9522 H   0  0  0  0  0  0  0  0  0  0  0  0
   18.5349   -8.9864   -1.0324 H   0  0  0  0  0  0  0  0  0  0  0  0
   17.6093  -10.3285    0.5801 H   0  0  0  0  0  0  0  0  0  0  0  0
   18.0959   -9.1778    1.9137 H   0  0  0  0  0  0  0  0  0  0  0  0
   17.6705   -7.0138    0.8057 H   0  0  0  0  0  0  0  0  0  0  0  0
   16.2005   -8.0170    1.8143 H   0  0  0  0  0  0  0  0  0  0  0  0
   15.5948   -9.6367    1.2382 H   0  0  0  0  0  0  0  0  0  0  0  0
   19.7241   -8.1093    1.5194 H   0  0  0  0  0  0  0  0  0  0  0  0
   20.7533   -5.5900   -1.2217 H   0  0  0  0  0  0  0  0  0  0  0  0
   19.8582   -6.9174   -2.0248 H   0  0  0  0  0  0  0  0  0  0  0  0
   20.8058   -9.9402   -1.7901 H   0  0  0  0  0  0  0  0  0  0  0  0
   22.2715  -10.3605   -0.9112 H   0  0  0  0  0  0  0  0  0  0  0  0
   21.2386   -9.9576    1.2288 H   0  0  0  0  0  0  0  0  0  0  0  0
   19.8746  -10.6141    0.3254 H   0  0  0  0  0  0  0  0  0  0  0  0
   19.4384   -4.5862    0.8306 H   0  0  0  0  0  0  0  0  0  0  0  0
   16.3538   -4.9916   -1.2967 H   0  0  0  0  0  0  0  0  0  0  0  0
   14.8948   -5.7658   -0.5908 H   0  0  0  0  0  0  0  0  0  0  0  0
   16.2990   -5.3723    0.4579 H   0  0  0  0  0  0  0  0  0  0  0  0
   22.7555   -8.0035    1.7191 H   0  0  0  0  0  0  0  0  0  0  0  0
   23.2674   -9.6097    1.0501 H   0  0  0  0  0  0  0  0  0  0  0  0
   25.0682   -7.4449    1.0073 H   0  0  0  0  0  0  0  0  0  0  0  0
   21.7212   -5.6438    0.5476 H   0  0  0  0  0  0  0  0  0  0  0  0
   20.8078   -6.5628    1.7916 H   0  0  0  0  0  0  0  0  0  0  0  0
   22.4123   -7.1511    1.2382 H   0  0  0  0  0  0  0  0  0  0  0  0
  3  1  1  0  0  0  0
  4  2  2  0  0  0  0
  5  3  1  0  0  0  0
  6  4  1  0  0  0  0
  6  5  1  0  0  0  0
  8  7  1  0  0  0  0
 10  8  1  0  0  0  0
  1  9  1  0  0  0  0
  2 10  1  0  0  0  0
  2  1  1  0  0  0  0
 13 11  1  0  0  0  0
  7 12  1  0  0  0  0
 14 13  1  0  0  0  0
  9  7  1  0  0  0  0
  9 14  1  0  0  0  0
 15 11  1  0  0  0  0
 12 11  1  0  0  0  0
 16 15  1  0  0  0  0
 17 12  1  0  0  0  0
 17 16  1  0  0  0  0
 14 18  1  0  0  0  0
  1 19  1  0  0  0  0
  6 20  2  0  0  0  0
 15 21  1  0  0  0  0
 21 22  2  0  0  0  0
 21 23  1  0  0  0  0
 23 24  1  0  0  0  0
 11 25  1  0  0  0  0
 26 14  1  0  0  0  0
 27 15  1  0  0  0  0
 28  3  1  0  0  0  0
 29  3  1  0  0  0  0
 30  4  1  0  0  0  0
 31  5  1  0  0  0  0
 32  5  1  0  0  0  0
 33  7  1  0  0  0  0
 34  8  1  0  0  0  0
 35  8  1  0  0  0  0
 36  9  1  0  0  0  0
 37 10  1  0  0  0  0
 38 10  1  0  0  0  0
 39 12  1  0  0  0  0
 40 13  1  0  0  0  0
 41 13  1  0  0  0  0
 42 16  1  0  0  0  0
 43 16  1  0  0  0  0
 44 17  1  0  0  0  0
 45 17  1  0  0  0  0
 46 18  1  0  0  0  0
 47 19  1  0  0  0  0
 48 19  1  0  0  0  0
 49 19  1  0  0  0  0
 50 23  1  0  0  0  0
 51 23  1  0  0  0  0
 52 24  1  0  0  0  0
 53 25  1  0  0  0  0
 54 25  1  0  0  0  0
 55 25  1  0  0  0  0
M  END
