
  ACD/Labs08241916393D

 14 13  0  0  0  0  0  0  0  0  1 V2000
   11.3107   -6.6591    0.2622 C   0  0  0  0  0  0  0  0  0  0  0  0
   12.3424   -7.4524   -0.4974 C   0  0  0  0  0  0  0  0  0  0  0  0
   13.7070   -7.3006    0.1287 C   0  0  0  0  0  0  0  0  0  0  0  0
   14.1211   -5.8244    0.1189 C   0  0  0  0  0  0  0  0  0  0  0  0
   10.7895   -5.9795   -0.4282 H   0  0  0  0  0  0  0  0  0  0  0  0
   10.5833   -7.3462    0.7192 H   0  0  0  0  0  0  0  0  0  0  0  0
   11.8060   -6.0725    1.0499 H   0  0  0  0  0  0  0  0  0  0  0  0
   12.0581   -8.5150   -0.4881 H   0  0  0  0  0  0  0  0  0  0  0  0
   12.3856   -7.0750   -1.5297 H   0  0  0  0  0  0  0  0  0  0  0  0
   13.6753   -7.6642    1.1664 H   0  0  0  0  0  0  0  0  0  0  0  0
   14.4383   -7.8870   -0.4471 H   0  0  0  0  0  0  0  0  0  0  0  0
   14.0843   -5.4400   -0.9111 H   0  0  0  0  0  0  0  0  0  0  0  0
   13.4313   -5.2458    0.7510 H   0  0  0  0  0  0  0  0  0  0  0  0
   15.1448   -5.7280    0.5098 H   0  0  0  0  0  0  0  0  0  0  0  0
  1  2  1  0  0  0  0
  2  3  1  0  0  0  0
  3  4  1  0  0  0  0
  5  1  1  0  0  0  0
  6  1  1  0  0  0  0
  7  1  1  0  0  0  0
  8  2  1  0  0  0  0
  9  2  1  0  0  0  0
 10  3  1  0  0  0  0
 11  3  1  0  0  0  0
 12  4  1  0  0  0  0
 13  4  1  0  0  0  0
 14  4  1  0  0  0  0
M  END
